# ============================================================
#  omnetpp.ini — Advanced Networks Course Project
#  Implemented parts :
#  Part I  – Network Architecture  (@3boudi, @mamouneabdelli, @midouuk)
#  Part II – TCP Analysis          (@Yehia-Bou-lahia)
#  Part II – UDP Analysis          (@abdenourounas)
#  Part III– QoS Implementation    (@Team03)
#  Part IV – Advanced Technologies (@Sidali-Djeghbal)
# ============================================================

# ============================================================
# [General]  — FROZEN after Part I approval, do not modify
# ============================================================
[General]
network          = src.BasicNetwork
sim-time-limit   = 400s
seed-set         = 0

output-scalar-file = results/${configname}-${runnumber}.sca
output-vector-file = results/${configname}-${runnumber}.vec

# Link-level queue and UDP receive vectors (Part I baseline)
**.eth[*].queue.queueLength:vector = true
**.app[*].rcvdPk:vector            = true

# IPv6-only topology
*.configurator.addStaticRoutes  = true
*.configurator.addDefaultRoutes = true
*.configurator.addSubnetRoutes  = true

**.hasIpv6 = true
**.hasIpv4 = false

# Prevent accidental multi-protocol routing when configs extend each other.
# Individual [Config] sections explicitly enable one routing daemon.
*.r*.hasRip  = false
*.r*.hasOspf = false

**.tcp.typename          = "Tcp"
**.tcp.tcpAlgorithmClass = "TcpReno"   # global default; overridden per config


# ============================================================
# [Config RIPng]
# ============================================================
[Config RIPng]

*.configurator.addStaticRoutes  = false
*.configurator.addDefaultRoutes = false

*.r*.hasRip              = true
*.r*.hasOspf             = false
*.r*.rip.mode            = "RIPng"

*.r*.rip.routingTableModule   = "^.ipv6.routingTable"
*.r*.rip.interfaceTableModule = "^.interfaceTable"

# Baseline RIPng timers — do not remove; changes convergence behavior
*.r*.rip.updateInterval    = 30s
*.r*.rip.routeExpiryTime   = 180s
*.r*.rip.routePurgeTime    = 120s


# ============================================================
# [Config OSPFv3]
# ============================================================
[Config OSPFv3]
description = "Dynamic routing with OSPFv3 (Link-State, IPv6)"

*.configurator.addStaticRoutes  = false
*.configurator.addDefaultRoutes = false

*.r*.hasRip                  = false
*.r*.hasOspf                 = true
*.r*.ospf.ospfConfig         = xmldoc("ospfv3_config.xml")
*.r*.ospf.helloInterval      = 10s
*.r*.ospf.deadInterval       = 40s
*.r*.ospf.retransmitInterval = 5s


# ============================================================
# [Config Part_II_Base]  — Foundation for all Part II configs
# ============================================================
[Config Part_II_Base]
description = "Part II Foundation: TCP/UDP apps on RIPng infrastructure"
extends = RIPng

# ── Router Queues (Packet loss & congestion analysis) ──
**.eth[*].queue.typename       = "DropTailQueue"
**.eth[*].queue.packetCapacity = 50

# ── TCP: client1 → server1  (port 1000) ────────────────────
*.client1.numApps               = 1
*.client1.app[0].typename       = "TcpSessionApp"
*.client1.app[0].connectAddress = "server1"
*.client1.app[0].connectPort    = 1000
*.client1.app[0].tOpen          = 50s
*.client1.app[0].tSend          = 51s
*.client1.app[0].tClose         = 350s
*.client1.app[0].sendBytes      = 10MB     # default; individual configs override

*.server1.numApps               = 1
*.server1.app[0].typename       = "TcpSinkApp"
*.server1.app[0].localPort      = 1000

# ── UDP: client2 → server2  (port 2000) ────────────────────
*.client2.numApps               = 1
*.client2.app[0].typename       = "UdpBasicApp"
*.client2.app[0].destAddresses  = "server2"
*.client2.app[0].destPort       = 2000
*.client2.app[0].startTime      = 50s
*.client2.app[0].messageLength  = 1000B
*.client2.app[0].sendInterval   = 0.01s   # default; individual configs override

*.server2.numApps               = 1
*.server2.app[0].typename       = "UdpSink"
*.server2.app[0].localPort      = 2000

# ── Transport metric recording ──────────────────────────────
**.cwnd:vector               = true
**.rtt:vector                = true
**.retransmittedBytes:vector = true
**.segsOut:vector            = true
**.segsIn:vector             = true
**.app[*].packetsDropped:vector = true
**.app[*].endToEndDelay:vector  = true
**.app[*].jitter:vector         = true


# ============================================================
# Part II – TCP Scenarios  (@Yehia-Bou-lahia)
# ============================================================

# ===========================================================
# [Config TCP_Reno_Baseline]
# ===========================================================
[Config TCP_Reno_Baseline]
description = "TCP Reno: 100 MB file transfer at 10 Mbps bottleneck (baseline)"
extends = Part_II_Base

*.configurator.addStaticRoutes  = true
*.configurator.addDefaultRoutes = true
*.r*.hasRip  = false
*.r*.hasOspf = false

**.tcp.tcpAlgorithmClass   = "TcpReno"
*.client1.app[0].sendBytes = 100MB
*.client2.numApps          = 0

*.client1.app[0].tOpen  = 30s
*.client1.app[0].tSend  = 31s
*.client1.app[0].tClose = 350s

**.scalar-recording = true
**.vector-recording = true

# ===========================================================
# [Config TCP_Cubic_Compare]
# ===========================================================
[Config TCP_Cubic_Compare]
description = "TCP CUBIC: 100 MB file transfer (algorithm comparison vs Reno)"
extends = Part_II_Base

*.configurator.addStaticRoutes  = true
*.configurator.addDefaultRoutes = true
*.r*.hasRip  = false
*.r*.hasOspf = false

**.tcp.tcpAlgorithmClass   = "TcpCubic"
*.client1.app[0].sendBytes = 100MB
*.client2.numApps          = 0

**.scalar-recording = true
**.vector-recording = true

# ===========================================================
# [Config TCP_Congestion_1Mbps]
# ===========================================================
[Config TCP_Congestion_1Mbps]
description = "TCP Reno stress-test: bottleneck reduced to 1 Mbps"
extends = Part_II_Base

*.configurator.addStaticRoutes  = true
*.configurator.addDefaultRoutes = true
*.r*.hasRip  = false
*.r*.hasOspf = false

**.tcp.tcpAlgorithmClass   = "TcpReno"
*.client1.app[0].sendBytes = 100MB
*.client2.numApps          = 0

*.r2.eth[2].datarate = 1Mbps

**.scalar-recording = true
**.vector-recording = true


# ============================================================
# Part II – UDP Scenarios  (@abdenourounas)
# ============================================================

# ===========================================================
# [Config UDP_Streaming]
# ===========================================================
[Config UDP_Streaming]
description = "UDP: Real-time streaming 1 000 pps ≈ 8 Mbps"
extends = Part_II_Base

*.client1.numApps              = 0
*.client2.app[0].sendInterval  = 1ms
*.client2.app[0].messageLength = 1000B

**.scalar-recording = true
**.vector-recording = true

# ===========================================================
# [Config UDP_Streaming_Light]
# ===========================================================
[Config UDP_Streaming_Light]
description = "UDP: Light streaming 200 pps ≈ 1.6 Mbps (comparison)"
extends = Part_II_Base

*.client1.numApps              = 0
*.client2.app[0].sendInterval  = 5ms
*.client2.app[0].messageLength = 1000B

**.scalar-recording = true
**.vector-recording = true

# ===========================================================
# [Config TCP_UDP_Competing]  — FROZEN baseline, do not modify
# ===========================================================
[Config TCP_UDP_Competing]
description = "TCP and UDP competing for bottleneck bandwidth"
extends = Part_II_Base

*.client1.app[0].sendBytes     = 100MB
*.client1.app[0].tOpen         = 50s
*.client2.app[0].sendInterval  = 10ms
*.client2.app[0].messageLength = 1000B
*.client2.app[0].startTime     = 60s

**.scalar-recording = true
**.vector-recording = true

# ===========================================================
# [Config TCP_UDP_Competing_OSPFv3]
# ===========================================================
[Config TCP_UDP_Competing_OSPFv3]
description = "TCP and UDP competing (OSPFv3 routing)"
extends = TCP_UDP_Competing

*.configurator.addStaticRoutes  = false
*.configurator.addDefaultRoutes = false

*.r*.hasRip                  = false
*.r*.hasOspf                 = true
*.r*.ospf.ospfConfig         = xmldoc("ospfv3_config.xml")
*.r*.ospf.helloInterval      = 10s
*.r*.ospf.deadInterval       = 40s
*.r*.ospf.retransmitInterval = 5s

# ===========================================================
# [Config UDP_Heavy_Load]
# ===========================================================
[Config UDP_Heavy_Load]
description = "UDP Heavy Load: 1 000 pps pushing bottleneck to limit"
extends = Part_II_Base

*.client1.numApps              = 0
*.client2.app[0].sendInterval  = 1ms
*.client2.app[0].messageLength = 1000B

**.scalar-recording = true
**.vector-recording = true


# ============================================================
# Part III – Quality of Service (QoS) Implementation (@Team03)
# ============================================================

# ===========================================================
# [Config QoS_DiffServ_WRR]
#
#   DiffServ with Weighted Round-Robin scheduling.
#
#   FIX (was QoS_DiffServ_WFQ): renamed to WRR to accurately
#   reflect the scheduler in use. WRR distributes bandwidth by
#   packet-count weights; it is NOT byte-weighted (WFQ) or
#   deficit-based (DRR). Document this distinction in the report.
#   If the course requirement strictly mandates WFQ/DRR, switch
#   scheduler to DeficitRoundRobinScheduler if available in your
#   INET version.
#
#   FIX (classifier): replaced WrrClassifier (which ignores DSCP)
#   with DscpClassifier. Packets are now deterministically mapped:
#     - UDP DSCP 46 (EF) → queue[0]  (high-weight lane)
#     - TCP DSCP  0 (BE) → queue[1]  (low-weight lane)
#
#   WRR weights 3:1 → UDP gets ~75% bandwidth,
#   TCP guaranteed ~25% — NO starvation.
#   Bottleneck set to 100 kbps locally to force observable queuing.
#   TCP_UDP_Competing baseline is NOT modified.
# ===========================================================
[Config QoS_DiffServ_WRR]
description = "Part III: DiffServ + Weighted Round-Robin (WRR) — no TCP starvation"
extends = TCP_UDP_Competing

# ── DSCP tagging ───────────────────────────────────────────
*.client2.app[0].dscp = 46   # UDP → Expedited Forwarding (EF)
*.client1.app[0].dscp = 0    # TCP → Best Effort (BE)

# ── Local bottleneck override (does NOT touch TCP_UDP_Competing) ──
*.r2.eth[2].datarate = 100kbps

# ── WRR scheduler at bottleneck egress port R5 ─────────────
*.r2.eth[2].queue.typename    = "PriorityQueue"
*.r2.eth[2].queue.numQueues   = 2

# FIX: DscpClassifier maps DSCP value → queue index deterministically.
# DSCP 46 (EF) → queue[0]; all others (incl. DSCP 0 BE) → queue[1].
*.r2.eth[2].queue.classifier.typename = "ContentBasedClassifier"
*.r2.eth[2].queue.classifier.packetFilters = ["*UdpBasicApp*", "*"]

# WRR: queue[0] weight 3, queue[1] weight 1 → 75%/25% share
*.r2.eth[2].queue.scheduler.typename  = "WrrScheduler"
*.r2.eth[2].queue.scheduler.weights   = "3 1"

*.r2.eth[2].queue.queue[0].typename        = "DropTailQueue"
*.r2.eth[2].queue.queue[0].packetCapacity  = 50
*.r2.eth[2].queue.queue[1].typename        = "DropTailQueue"
*.r2.eth[2].queue.queue[1].packetCapacity  = 50

# ── UDP packet size adjusted to fit 100 kbps bottleneck ────
*.client2.app[0].messageLength = 200B

**.scalar-recording = true
**.vector-recording = true

# ===========================================================
# [Config QoS_DiffServ_WRR_OSPFv3]
#   Same DiffServ/WRR scenario on OSPFv3 routing.
# ===========================================================
[Config QoS_DiffServ_WRR_OSPFv3]
description = "Part III: DiffServ + WRR (OSPFv3 routing)"
extends = QoS_DiffServ_WRR

*.configurator.addStaticRoutes  = false
*.configurator.addDefaultRoutes = false

*.r*.hasRip                  = false
*.r*.hasOspf                 = true
*.r*.ospf.ospfConfig         = xmldoc("ospfv3_config.xml")
*.r*.ospf.helloInterval      = 10s
*.r*.ospf.deadInterval       = 40s
*.r*.ospf.retransmitInterval = 5s

# ===========================================================
# [Config QoS_IntServ_RSVP]
#
#   IntServ emulation via per-flow strict priority + constrained queues.
#
#   IntServ provides per-flow guaranteed bandwidth reservation (unlike
#   DiffServ which is per-aggregate-class). Since INET's RSVP-TE support
#   for IPv6 is limited, this config emulates the effect of two IntServ
#   service classes:
#     - queue[0]: Guaranteed Service (GS)  → UDP real-time flow
#     - queue[1]: Controlled Load (CL)     → TCP bulk flow
#
#   Strict priority is correct for GS emulation: GS traffic gets absolute
#   precedence. The small queue[0] capacity (20 pkts) naturally bounds the
#   UDP reservation, preventing indefinite monopolization.
#
#   FIX (classifier): replaced WrrClassifier with DscpClassifier so that
#   UDP (DSCP 10, AF11) is deterministically placed in queue[0] and TCP
#   (DSCP 0) in queue[1]. Without this, strict priority has no effect
#   since packets were not reliably separated by flow type.
#
#   DSCP AF11 (10) used for UDP to signal Controlled-Load / GS intent.
# ===========================================================
[Config QoS_IntServ_RSVP]
description = "Part III: IntServ emulation — per-flow GS/CL reservation at R5"
extends = TCP_UDP_Competing

# ── DSCP tagging (IntServ service class signaling) ──────────
*.client2.app[0].dscp = 10   # AF11 → Guaranteed Service candidate
*.client1.app[0].dscp = 0    # Best Effort

# ── Local bottleneck override ───────────────────────────────
*.r2.eth[2].datarate = 100kbps

# ── Per-flow reservation queuing at R5 ─────────────────────
*.r2.eth[2].queue.typename    = "PriorityQueue"
*.r2.eth[2].queue.numQueues   = 2

# FIX: DscpClassifier maps DSCP 10 (AF11/GS) → queue[0],
#      DSCP 0 (BE) → queue[1], deterministically.
*.r2.eth[2].queue.classifier.typename = "ContentBasedClassifier"
*.r2.eth[2].queue.classifier.packetFilters = ["*UdpBasicApp*", "*"]

# Strict priority appropriate for IntServ Guaranteed Service emulation
*.r2.eth[2].queue.scheduler.typename  = "PriorityScheduler"

# queue[0]: GS — small, bounded reservation (emulates RSVP bandwidth alloc)
*.r2.eth[2].queue.queue[0].typename        = "DropTailQueue"
*.r2.eth[2].queue.queue[0].packetCapacity  = 20

# queue[1]: CL/BE — larger buffer for TCP
*.r2.eth[2].queue.queue[1].typename        = "DropTailQueue"
*.r2.eth[2].queue.queue[1].packetCapacity  = 30

# ── Adjust UDP packet size ──────────────────────────────────
*.client2.app[0].messageLength = 200B

**.scalar-recording = true
**.vector-recording = true

# ===========================================================
# [Config QoS_IntServ_RSVP_OSPFv3]
#   IntServ scenario on OSPFv3 routing.
# ===========================================================
[Config QoS_IntServ_RSVP_OSPFv3]
description = "Part III: IntServ emulation (OSPFv3 routing)"
extends = QoS_IntServ_RSVP

*.configurator.addStaticRoutes  = false
*.configurator.addDefaultRoutes = false

*.r*.hasRip                  = false
*.r*.hasOspf                 = true
*.r*.ospf.ospfConfig         = xmldoc("ospfv3_config.xml")
*.r*.ospf.helloInterval      = 10s
*.r*.ospf.deadInterval       = 40s
*.r*.ospf.retransmitInterval = 5s


# ============================================================
# Part IV – Advanced Technologies (Option A - @Sidali-djeghbal)
# ============================================================

# ===========================================================
# [Config IPv6_Advanced_QoS]
#
#   IPv6 Advanced Features: Auto-configuration + DiffServ QoS tagging.
#   UDP tagged EF (DSCP 46), TCP tagged BE (DSCP 0).
#   WrrScheduler at R2 bottleneck to avoid TCP starvation.
# ===========================================================
[Config IPv6_Advanced_QoS]
description = "Part IV (Option A): IPv6 Advanced Features — QoS & Auto-config"
extends = TCP_UDP_Competing

# ── DSCP tagging ───────────────────────────────────────────
*.client2.app[0].dscp = 46   # UDP → Expedited Forwarding
*.client1.app[0].dscp = 0    # TCP → Best Effort

# ── QoS at bottleneck router R2 ────────────────────────────
*.r2.eth[2].queue.typename    = "PriorityQueue"
*.r2.eth[2].queue.numQueues   = 2
*.r2.eth[2].queue.classifier.typename              = "DscpClassifier"
*.r2.eth[2].queue.classifier.dscpToQueueMapping    = "46:0 0:1"
*.r2.eth[2].queue.classifier.defaultQueueIndex     = 1
*.r2.eth[2].queue.scheduler.typename  = "WrrScheduler"
*.r2.eth[2].queue.scheduler.weights   = "3 1"

*.r2.eth[2].queue.queue[0].typename        = "DropTailQueue"
*.r2.eth[2].queue.queue[0].packetCapacity  = 50
*.r2.eth[2].queue.queue[1].typename        = "DropTailQueue"
*.r2.eth[2].queue.queue[1].packetCapacity  = 50

# ── IPv6 Traffic Class / DSCP recording ────────────────────
**.ipv6.dscp:vector         = true
**.ipv6.trafficClass:vector = true

**.scalar-recording = true
**.vector-recording = true

# ===========================================================
# [Config IPv6_Advanced_QoS_OSPFv3]
#   Part IV QoS scenario on OSPFv3 routing.
# ===========================================================
[Config IPv6_Advanced_QoS_OSPFv3]
description = "Part IV (Option A): IPv6 QoS & Auto-config (OSPFv3 routing)"
extends = IPv6_Advanced_QoS

*.configurator.addStaticRoutes  = false
*.configurator.addDefaultRoutes = false

*.r*.hasRip                  = false
*.r*.hasOspf                 = true
*.r*.ospf.ospfConfig         = xmldoc("ospfv3_config.xml")
*.r*.ospf.helloInterval      = 10s
*.r*.ospf.deadInterval       = 40s
*.r*.ospf.retransmitInterval = 5s