# ============================================================
#  omnetpp.ini — Advanced Networks Course Project
#
#  Part I  – Network Architecture  (@3boudi, @mamouneabdelli, @midouuk)
#  Part II – TCP Analysis          (@Yehia-Bou-lahia)
#  Part II – UDP Analysis          (@abdenourounas)
#
#  Config Index
#  ─────────────────────────────────────────────────────────
#  ── Part I  (FROZEN — do not modify) ──
#    [RIPng]                  RIPng distance-vector routing
#    [OSPFv3]                 OSPFv3 link-state routing
#
#  ── Part II – Foundation ──
#    [Part_II_Base]           TCP + UDP apps on RIPng infrastructure
#
#  ── Part II – TCP  (@Yehia-Bou-lahia) ──
#    [TCP_Reno_Baseline]      TCP Reno, 100 MB, UDP off   ← required
#    [TCP_Cubic_Compare]      TCP CUBIC, 100 MB, UDP off  ← required
#    [TCP_Congestion_1Mbps]   TCP Reno, 1 Mbps bottleneck (bonus stress-test)
#
#  ── Part II – UDP  (@abdenourounas) ──
#    [UDP_Streaming]          1 ms = 1 000 pps ≈ 8 Mbps  ← required
#    [UDP_Streaming_Light]    5 ms =   200 pps ≈ 1.6 Mbps (comparison)
#    [TCP_UDP_Competing]      TCP 100 MB + UDP 800 kbps   ← required
#    [UDP_Heavy_Load]         UDP stress test 1 000 pps   ← required
# ============================================================

# ============================================================
# [General]  — FROZEN after Part I approval
# ============================================================
[General]
network          = src.BasicNetwork
sim-time-limit   = 400s
seed-set         = 0

output-scalar-file = results/${configname}-${runnumber}.sca
output-vector-file = results/${configname}-${runnumber}.vec

# Link-level queue and UDP receive vectors (Part I baseline)
**.eth[*].queue.queueLength:vector = true
**.udpApp[*].rcvdPk:vector         = true

# IPv6-only topology
*.configurator.addStaticRoutes  = true
*.configurator.addDefaultRoutes = true
*.configurator.addSubnetRoutes  = true

**.hasIpv6 = true
**.hasIpv4 = false

**.tcp.typename          = "Tcp"
**.tcp.tcpAlgorithmClass = "TcpReno"   # global default; overridden per config

# ============================================================
# [Config RIPng]  — FROZEN (Part I)
# ============================================================
[Config RIPng]
description = "Dynamic routing with RIPng (Distance-Vector, IPv6)"

*.configurator.addStaticRoutes  = false
*.configurator.addDefaultRoutes = false

**.r[*].hasRip              = true
**.r[*].rip.mode            = "RIPng"
**.r[*].rip.updateInterval  = 30s
**.r[*].rip.routeExpiryTime = 180s
**.r[*].rip.routePurgeTime  = 120s

# ============================================================
# [Config OSPFv3]  — FROZEN (Part I)
# ============================================================
[Config OSPFv3]
description = "Dynamic routing with OSPFv3 (Link-State, IPv6)"

*.configurator.addStaticRoutes  = false
*.configurator.addDefaultRoutes = false

**.r[*].hasOspf                 = true
**.r[*].ospf.ospfConfig         = xmldoc("ospfv3_config.xml")
**.r[*].ospf.helloInterval      = 10s
**.r[*].ospf.deadInterval       = 40s
**.r[*].ospf.retransmitInterval = 5s

# ============================================================
# [Config Part_II_Base]  — Foundation for all Part II configs
# Owned by Part II; do NOT extend from [General] directly.
# ============================================================
[Config Part_II_Base]
description = "Part II Foundation: TCP/UDP apps on RIPng infrastructure"
extends = RIPng

# ── TCP: client1 → server1  (port 1000) ────────────────────
*.client1.numApps               = 1
*.client1.app[0].typename       = "TcpSessionApp"
*.client1.app[0].connectAddress = "server1"
*.client1.app[0].connectPort    = 1000
*.client1.app[0].tOpen          = 40s
*.client1.app[0].tSend          = 41s
*.client1.app[0].tClose         = 130s
*.client1.app[0].sendBytes      = 10MB     # default; individual configs override

*.server1.numApps               = 1
*.server1.app[0].typename       = "TcpSinkApp"
*.server1.app[0].localPort      = 1000

# ── UDP: client2 → server2  (port 2000) ────────────────────
*.client2.numApps               = 1
*.client2.app[0].typename       = "UdpBasicApp"
*.client2.app[0].destAddresses  = "server2"
*.client2.app[0].destPort       = 2000
*.client2.app[0].messageLength  = 1000B
*.client2.app[0].sendInterval   = 0.01s   # default; individual configs override

*.server2.numApps               = 1
*.server2.app[0].typename       = "UdpSink"
*.server2.app[0].localPort      = 2000

# ── Transport metric recording (Issue #3 fix) ──────────────
# Core TCP vectors
**.cwnd:vector              = true
**.rtt:vector               = true
# Retransmission / segment counters (required for loss % calculation)
**.retransmittedBytes:vector = true
**.segsOut:vector            = true
**.segsIn:vector             = true
# UDP drop counter (required for UDP loss % calculation)
**.udpApp[*].packetsDropped:vector = true


# ============================================================
# Part II – TCP Scenarios  (@Yehia-Bou-lahia)
# ============================================================

# ===========================================================
# [Config TCP_Reno_Baseline]
#   TCP Reno — 100 MB file transfer, 10 Mbps bottleneck, UDP disabled.
#   Primary baseline for TCP algorithm comparison and cwnd analysis.
#
#   Fixes applied (per TEAM02-REVIEW.md):
#     • Renamed from TCP_Baseline
#     • sendBytes raised 10 MB → 100 MB  (Action 1)
#     • tcpAlgorithmClass set explicitly  (Action 1)
#     • client2 (UDP) disabled            (Action 1)
#     • retransmittedBytes vector added   (Action 3)
# ===========================================================
[Config TCP_Reno_Baseline]
description = "TCP Reno: 100 MB file transfer at 10 Mbps bottleneck (baseline)"
extends = Part_II_Base

# Override RIPng with static routes for reliable baseline testing
*.configurator.addStaticRoutes  = true
*.configurator.addDefaultRoutes = true

**.tcp.tcpAlgorithmClass   = "TcpReno"   # explicit — no implicit Global inheritance
*.client1.app[0].sendBytes = 100MB       # override 10 MB default from Part_II_Base
*.client2.numApps          = 0           # UDP off: TCP-only isolated test

# Extend timing far beyond any initialization as safety margin
*.client1.app[0].tOpen     = 30s
*.client1.app[0].tSend     = 31s
*.client1.app[0].tClose    = 350s

**.*:vector    = true
**.*:vector     = true
**.*:vector  = true
**.*:vector  = true

**.scalar-recording = true
**.vector-recording = true

# ===========================================================
# [Config TCP_Cubic_Compare]
#   TCP CUBIC — identical conditions to TCP_Reno_Baseline.
#   Compare cwnd growth curve and throughput against Reno.
#   New config per TEAM02-REVIEW.md Action 2.
# ===========================================================
[Config TCP_Cubic_Compare]
description = "TCP CUBIC: 100 MB file transfer (algorithm comparison vs Reno)"
extends = Part_II_Base

**.tcp.tcpAlgorithmClass   = "TcpCubic"
*.client1.app[0].sendBytes = 100MB
*.client2.numApps          = 0           # UDP off: TCP-only isolated test

**.*:vector    = true
**.*:vector     = true
**.*:vector  = true
**.*:vector  = true

**.scalar-recording = true
**.vector-recording = true

# ===========================================================
# [Config TCP_Congestion_1Mbps]  — Bonus / stress-test
#   TCP Reno under severe bottleneck (1 Mbps instead of 10 Mbps).
#   Not a required deliverable in team02.md; kept for supplementary
#   analysis of extreme congestion window collapse.
# ===========================================================
[Config TCP_Congestion_1Mbps]
description = "TCP Reno stress-test: bottleneck reduced to 1 Mbps"
extends = Part_II_Base

**.tcp.tcpAlgorithmClass   = "TcpReno"
*.client1.app[0].sendBytes = 100MB
*.client2.numApps          = 0

**.*:vector    = true
**.*:vector     = true
**.*:vector  = true
**.*:vector  = true

# Constrain the R2↔R5 bottleneck link to 1 Mbps
**.r2.eth[2].datarate = 1Mbps

**.scalar-recording = true
**.vector-recording = true


# ============================================================
# Part II – UDP Scenarios  (@abdenourounas)
# ============================================================

# ===========================================================
# [Config UDP_Streaming] — @abdenourounas
#   UDP 1 ms interval = 1 000 pps ≈ 8 Mbps  (per team02.md spec)
#   Fixed from 5 ms → 1 ms per TEAM02-REVIEW.md Action 4
# ===========================================================
[Config UDP_Streaming]
description = "UDP: Real-time streaming 1 000 pps ≈ 8 Mbps (per team02.md)"
extends = Part_II_Base

*.client1.numApps             = 0      # TCP disabled — UDP only
*.client2.app[0].sendInterval = 1ms    # 1 000 pkt/s ≈ 8 Mbps
*.client2.app[0].messageLength = 1000B

**.scalar-recording = true
**.vector-recording = true

# ===========================================================
# [Config UDP_Streaming_Light] — @abdenourounas
#   UDP 5 ms interval = 200 pps ≈ 1.6 Mbps (comparison variant)
#   Kept alongside UDP_Streaming per TEAM02-REVIEW.md Action 4 Option B.
#   Reference results: Loss=2.365%, Delay=24.354 ms, Jitter=0.590 ms
# ===========================================================
[Config UDP_Streaming_Light]
description = "UDP: Light streaming 200 pps ≈ 1.6 Mbps (comparison)"
extends = Part_II_Base

*.client1.numApps              = 0      # TCP disabled — UDP only
*.client2.app[0].sendInterval  = 5ms    # 200 pkt/s ≈ 1.6 Mbps
*.client2.app[0].messageLength = 1000B

**.scalar-recording = true
**.vector-recording = true

# ===========================================================
# [Config TCP_UDP_Competing] — @abdenourounas
#   TCP 100 MB + UDP 800 kbps competing at bottleneck.
#   UDP starts 5 s after TCP to capture TCP's initial ramp-up.
#   Reference results: UDP Loss=0.032%, Delay=24.356 ms, Jitter=0.642 ms
# ===========================================================
[Config TCP_UDP_Competing]
description = "TCP and UDP competing for bottleneck bandwidth"
extends = Part_II_Base

*.client1.app[0].sendBytes     = 100MB
*.client1.app[0].tOpen         = 1s
*.client2.app[0].sendInterval  = 10ms   # 800 kbps UDP
*.client2.app[0].messageLength = 1000B
*.client2.app[0].startTime     = 5s     # start UDP after TCP is running

**.scalar-recording = true
**.vector-recording = true

# ===========================================================
# [Config UDP_Heavy_Load] — @abdenourounas
#   UDP 1 ms interval = 1 000 pps ≈ 8 Mbps — bottleneck stress test.
#   Reference results: Loss=3.928%, Delay=24.355 ms, Jitter=0.579 ms
# ===========================================================
[Config UDP_Heavy_Load]
description = "UDP Heavy Load: 1 000 pps pushing bottleneck to limit"
extends = Part_II_Base

*.client1.numApps              = 0      # TCP disabled — UDP only
*.client2.app[0].sendInterval  = 1ms    # 1 000 pkt/s ≈ 8 Mbps
*.client2.app[0].messageLength = 1000B

**.scalar-recording = true
**.vector-recording = true
