# ============================================================
#  omnetpp.ini — Advanced Networks Course Project
#  Part I: Network Architecture (@3boudi, @mamouneabdelli, @midouuk)
#  Part II: TCP / UDP Transport Analysis (@Yehia-Bou-lahia, @abdenourounas)
#
#  Available Configs:
#    [RIPng]                  - RIPng routing only
#    [OSPFv3]                 - OSPFv3 routing only
#    [Part_II_Base]           - Foundation with TCP & UDP apps
#    [TCP_Baseline]           - TCP test with 10 Mbps bottleneck       (@Yehia-Bou-lahia)
#    [TCP_Congestion_1Mbps]   - TCP test with 1 Mbps bottleneck        (@Yehia-Bou-lahia)
#    [UDP_Streaming]          - UDP streaming 1ms ≈ 8Mbps (spec)      (@abdenourounas)
#    [UDP_Streaming_Light]    - UDP streaming 5ms ≈ 1.6Mbps (compare) (@abdenourounas)
#    [TCP_UDP_Competing]      - TCP and UDP compete                    (@abdenourounas)
#    [UDP_Heavy_Load]         - UDP heavy load 1ms interval            (@abdenourounas)
# ============================================================

[General]
network          = src.BasicNetwork
sim-time-limit   = 100s
seed-set         = 0

output-scalar-file = results/${configname}-${runnumber}.sca
output-vector-file = results/${configname}-${runnumber}.vec

# ── Vector recording ─────────────────────────────────────────
**.eth[*].queue.queueLength:vector    = true
**.udpApp[*].rcvdPk:vector            = true
# Missing metrics added per code review (Action 3)
**.tcp.retransmittedBytes:vector      = true
**.tcp.segsOut:vector                 = true
**.tcp.segsIn:vector                  = true
**.udpApp[*].packetsDropped:vector    = true

# IPv6 only
*.configurator.addStaticRoutes   = true
*.configurator.addDefaultRoutes  = true
*.configurator.addSubnetRoutes   = true

**.hasIpv6 = true
**.hasIpv4 = false

**.tcp.typename          = "Tcp"
**.tcp.tcpAlgorithmClass = "TcpReno"

# ===========================================================
# [Config RIPng]
# ===========================================================
[Config RIPng]
description = "Dynamic routing with RIPng (Distance-Vector, IPv6)"

*.configurator.addStaticRoutes  = false
*.configurator.addDefaultRoutes = false

**.r[*].hasRip           = true
**.r[*].rip.mode         = "RIPng"
**.r[*].rip.updateInterval   = 30s
**.r[*].rip.routeExpiryTime  = 180s
**.r[*].rip.routePurgeTime   = 120s

# ===========================================================
# [Config OSPFv3]
# ===========================================================
[Config OSPFv3]
description = "Dynamic routing with OSPFv3 (Link-State, IPv6)"

*.configurator.addStaticRoutes  = false
*.configurator.addDefaultRoutes = false

**.r[*].hasOspf                  = true
**.r[*].ospf.ospfConfig         = xmldoc("ospfv3_config.xml")
**.r[*].ospf.helloInterval       = 10s
**.r[*].ospf.deadInterval        = 40s
**.r[*].ospf.retransmitInterval  = 5s

# ===========================================================
# [Config Part_II_Base] — Foundation for Transport Analysis
# ===========================================================
[Config Part_II_Base]
description = "Part II Foundation: TCP/UDP apps for transport protocol testing"
extends = RIPng

# TCP: client1 → server1 (port 1000)
*.client1.numApps                = 1
*.client1.app[0].typename        = "TcpSessionApp"
*.client1.app[0].connectAddress  = "server1"
*.client1.app[0].connectPort     = 1000
*.client1.app[0].tOpen           = 1s
*.client1.app[0].tSend           = 2s
*.client1.app[0].tClose          = 90s
*.client1.app[0].sendBytes       = 10MB

*.server1.numApps                = 1
*.server1.app[0].typename        = "TcpSinkApp"
*.server1.app[0].localPort       = 1000

# UDP: client2 → server2 (port 2000)
*.client2.numApps                = 1
*.client2.app[0].typename        = "UdpBasicApp"
*.client2.app[0].destAddresses   = "server2"
*.client2.app[0].destPort        = 2000
*.client2.app[0].messageLength   = 1000B
*.client2.app[0].sendInterval    = 0.01s

*.server2.numApps                = 1
*.server2.app[0].typename        = "UdpSink"
*.server2.app[0].localPort       = 2000

# Recording
**.tcp.cwnd:vector = true
**.tcp.rtt:vector  = true

# ============================================================
# Part II – TCP Scenarios (@Yehia-Bou-lahia)
# ============================================================
[Config TCP_Baseline]
extends = Part_II_Base
description = "TCP Baseline: Bottleneck 10 Mbps"
**.tcp.cwnd:vector   = true
**.tcp.rtt:vector    = true
**.tcp.sndNxt:vector = true
**.tcp.sndUna:vector = true

[Config TCP_Congestion_1Mbps]
extends = Part_II_Base
description = "TCP Congestion: Bottleneck 1 Mbps"
**.tcp.cwnd:vector    = true
**.tcp.rtt:vector     = true
**.tcp.sndNxt:vector  = true
**.tcp.sndUna:vector  = true
**.r2.eth[2].datarate = 1Mbps

# ============================================================
# Part II – UDP Scenarios (@abdenourounas)
# ============================================================

# ===========================================================
# [Config UDP_Streaming] — @abdenourounas
#   UDP 1ms = 1000 pps ≈ 8 Mbps (per team02.md spec)
# ===========================================================
[Config UDP_Streaming]
description = "UDP: Real-time streaming 1000 pps ≈ 8 Mbps (per team02.md)"
extends = Part_II_Base

*.client1.numApps              = 0       # TCP disabled — UDP only
*.client2.app[0].sendInterval  = 1ms     # 1000 pkt/s ≈ 8 Mbps
*.client2.app[0].messageLength = 1000B

**.scalar-recording = true
**.vector-recording = true


# ===========================================================
# [Config UDP_Streaming_Light] — @abdenourounas
#   UDP 5ms = 200 pps ≈ 1.6 Mbps (comparison variant)
#   Results: Loss=2.365%, Delay=24.354ms, Jitter=0.590ms
# ===========================================================
[Config UDP_Streaming_Light]
description = "UDP: Light streaming 200 pps ≈ 1.6 Mbps (comparison)"
extends = Part_II_Base

*.client1.numApps              = 0       # TCP disabled — UDP only
*.client2.app[0].sendInterval  = 5ms     # 200 pkt/s ≈ 1.6 Mbps
*.client2.app[0].messageLength = 1000B

**.scalar-recording = true
**.vector-recording = true


# ===========================================================
# [Config TCP_UDP_Competing] — @abdenourounas
#   TCP 100MB + UDP 800kbps competing at bottleneck
#   Results: UDP Loss=0.032%, Delay=24.356ms, Jitter=0.642ms
# ===========================================================
[Config TCP_UDP_Competing]
description = "TCP and UDP competing for bottleneck bandwidth"
extends = Part_II_Base

*.client1.app[0].sendBytes     = 100MB
*.client1.app[0].tOpen         = 1s
*.client2.app[0].sendInterval  = 10ms    # 800 kbps UDP
*.client2.app[0].messageLength = 1000B
*.client2.app[0].startTime     = 5s      # Start UDP after TCP running

**.scalar-recording = true
**.vector-recording = true


# ===========================================================
# [Config UDP_Heavy_Load] — @abdenourounas
#   UDP 1ms = 1000 pps ≈ 8 Mbps — stress test
#   Results: Loss=3.928%, Delay=24.355ms, Jitter=0.579ms
# ===========================================================
[Config UDP_Heavy_Load]
description = "UDP Heavy Load: 1000 pps pushing bottleneck limit"
extends = Part_II_Base

*.client1.numApps              = 0       # TCP disabled — UDP only
*.client2.app[0].sendInterval  = 1ms     # 1000 pkt/s ≈ 8 Mbps
*.client2.app[0].messageLength = 1000B

**.scalar-recording = true
**.vector-recording = true