# ============================================================
#  omnetpp.ini — Part I: Network Architecture Design
#  Advanced Networks Course Project — OMNeT++ / INET Framework
#  Team: @3boudi, @mamouneabdelli, @midouuk
#
#  Configs defined here:
#    [General]           — Infrastructure-only shared settings (Part I owns this)
#    [Config RIPng]      — RIPng dynamic routing experiment
#    [Config OSPFv3]     — OSPFv3 dynamic routing experiment
#    [Config Part_II_Base] — Foundation for Part II team (TCP/UDP apps)
#
#  How to run:
#    IDE:  Right-click omnetpp.ini → Run As → OMNeT++ Simulation
#    CLI:  opp_run -u Cmdenv -c RIPng omnetpp.ini
#          opp_run -u Cmdenv -c OSPFv3 omnetpp.ini
#
#  IMPORTANT for downstream teams:
#    - DO NOT modify [General] or [Config RIPng] / [Config OSPFv3]
#    - Part II: extend [Config Part_II_Base] for transport testing
#    - Part III: extend Part II configs for QoS
#    - Part IV: extend Part II/III configs for advanced features
#    - Part V: coordinate all configs for final analysis
# ============================================================


# ===========================================================
# [General] — INFRASTRUCTURE ONLY (Part I owns — do not modify)
#   No application-level config here. IPv6 + output only.
# ===========================================================
[General]
network          = src.BasicNetwork
sim-time-limit   = 100s
seed-set         = 0

# ── Output ──────────────────────────────────────────────────
output-scalar-file = results/${configname}-${runnumber}.sca
output-vector-file = results/${configname}-${runnumber}.vec

# ── Vector recording (OMNeT++ 6.x) ──────────────────────────
**.eth[*].queue.queueLength:vector = true
**.udpApp[*].rcvdPk:vector         = true

# ── IPv6 Configuration ──────────────────────────────────────
*.configurator.addStaticRoutes   = true
*.configurator.addDefaultRoutes  = true
*.configurator.addSubnetRoutes   = true

**.hasIpv6 = true
**.hasIpv4 = false

# ── TCP Stack baseline ───────────────────────────────────────
**.tcp.typename          = "Tcp"
**.tcp.tcpAlgorithmClass = "TcpReno"


# ===========================================================
# [Config RIPng] — RIPng (RFC 2080) for IPv6
#
#  FIX #1: **.router* → **.r[*] to match actual names r1..r6
#  FIX #4: Removed non-existent routeAdded/routeDeleted signals
# ===========================================================
[Config RIPng]
description = "Dynamic routing with RIPng (Distance-Vector, IPv6)"

*.configurator.addStaticRoutes  = false
*.configurator.addDefaultRoutes = false

**.r[*].hasRip           = true
**.r[*].rip.mode         = "RIPng"
**.r[*].rip.updateInterval   = 30s
**.r[*].rip.routeExpiryTime  = 180s
**.r[*].rip.routePurgeTime   = 120s


# ===========================================================
# [Config OSPFv3] — OSPFv3 (RFC 5340) for IPv6
#
#  FIX #2: **.router* → **.r[*] to match actual names r1..r6
#  FIX #5: Removed non-existent numLsa signal
#  FIX #6: ospfv3_config.xml now exists — xmldoc() reference restored
# ===========================================================
[Config OSPFv3]
description = "Dynamic routing with OSPFv3 (Link-State, IPv6)"

*.configurator.addStaticRoutes  = false
*.configurator.addDefaultRoutes = false

**.r[*].hasOspf                  = true
**.r[*].ospf.ospfConfig         = xmldoc("ospfv3_config.xml")
**.r[*].ospf.helloInterval       = 10s
**.r[*].ospf.deadInterval        = 40s
**.r[*].ospf.retransmitInterval  = 5s


# ===========================================================
# [Config Part_II_Base] — Foundation for Part II Team
#
#  FIX #3: TCP/UDP apps moved OUT of [General] into here.
#  FIX #7: Bottleneck_Study deleted (belongs to Part III).
#
#  Part II usage:
#    [Config TCP_Cubic_Test]
#    extends = Part_II_Base
#    **.tcp.tcpAlgorithmClass = "TcpCubic"
# ===========================================================
[Config Part_II_Base]
description = "Part II Foundation: TCP/UDP apps for transport protocol testing"
extends = RIPng

# ── TCP: client1 → server1 (port 1000) ──────────────────────
*.client1.numApps                = 1
*.client1.app[0].typename        = "TcpSessionApp"
*.client1.app[0].connectAddress  = "server1"
*.client1.app[0].connectPort     = 1000
*.client1.app[0].tOpen           = 1s
*.client1.app[0].tSend           = 2s
*.client1.app[0].tClose          = 90s
*.client1.app[0].sendBytes       = 10MB

*.server1.numApps                = 1
*.server1.app[0].typename        = "TcpSinkApp"
*.server1.app[0].localPort       = 1000

# ── UDP: client2 → server2 (port 2000) ──────────────────────
*.client2.numApps                = 1
*.client2.app[0].typename        = "UdpBasicApp"
*.client2.app[0].destAddresses   = "server2"
*.client2.app[0].destPort        = 2000
*.client2.app[0].messageLength   = 1000B
*.client2.app[0].sendInterval    = 0.01s

*.server2.numApps                = 1
*.server2.app[0].typename        = "UdpSink"
*.server2.app[0].localPort       = 2000

# ── Transport recording vectors ──────────────────────────────
**.tcp.cwnd:vector = true
**.tcp.rtt:vector  = true

# ============================================================
# Part II – TCP Analysis Scenarios
# Created by: [Your Name]
# Description: Two congestion levels for TCP behavior analysis
# ============================================================

[Config TCP_Baseline]
extends = Part_II_Base
description = "TCP Baseline: Bottleneck 10 Mbps (light congestion)"

# Recording TCP-specific vectors (already enabled in Part_II_Base but we reinforce)
**.tcp.cwnd:vector = true
**.tcp.rtt:vector = true
**.tcp.sndNxt:vector = true
**.tcp.sndUna:vector = true

# Keep bottleneck at default 10 Mbps (as in NED)
# No need to override datarate here


[Config TCP_Congestion_1Mbps]
extends = Part_II_Base
description = "TCP Congestion: Bottleneck reduced to 1 Mbps (severe congestion)"

# Same TCP recording
**.tcp.cwnd:vector = true
**.tcp.rtt:vector = true
**.tcp.sndNxt:vector = true
**.tcp.sndUna:vector = true

# Override bottleneck link speed to 1 Mbps
**.r2.eth[2].datarate = 1Mbps




































