# ============================================================
#  omnetpp.ini — Advanced Networks Course Project
#  Part I: Network Architecture (@3boudi, @mamouneabdelli, @midouuk)
#  Part II: TCP / UDP Transport Analysis (@Yehia-Bou-lahia, @abdenourounas)
#
#  Available Configs:
#    [RIPng]                 - RIPng routing only
#    [OSPFv3]                - OSPFv3 routing only
#    [Part_II_Base]          - Foundation with TCP & UDP apps
#    [TCP_Baseline]          - TCP test with 10 Mbps bottleneck
#    [TCP_Congestion_1Mbps]  - TCP test with 1 Mbps bottleneck
#    [UDP_Streaming]         - UDP streaming (5ms interval)
#    [TCP_UDP_Competing]     - TCP and UDP compete
#    [UDP_Heavy_Load]        - UDP heavy load (1ms interval)
# ============================================================

[General]
network          = src.BasicNetwork
sim-time-limit   = 100s
seed-set         = 0

output-scalar-file = results/${configname}-${runnumber}.sca
output-vector-file = results/${configname}-${runnumber}.vec

**.eth[*].queue.queueLength:vector = true
**.udpApp[*].rcvdPk:vector         = true

# IPv6 only
*.configurator.addStaticRoutes   = true
*.configurator.addDefaultRoutes  = true
*.configurator.addSubnetRoutes   = true

**.hasIpv6 = true
**.hasIpv4 = false

**.tcp.typename          = "Tcp"
**.tcp.tcpAlgorithmClass = "TcpReno"

# ===========================================================
# [Config RIPng]
# ===========================================================
[Config RIPng]
description = "Dynamic routing with RIPng (Distance-Vector, IPv6)"

*.configurator.addStaticRoutes  = false
*.configurator.addDefaultRoutes = false

**.r[*].hasRip           = true
**.r[*].rip.mode         = "RIPng"
**.r[*].rip.updateInterval   = 30s
**.r[*].rip.routeExpiryTime  = 180s
**.r[*].rip.routePurgeTime   = 120s

# ===========================================================
# [Config OSPFv3]
# ===========================================================
[Config OSPFv3]
description = "Dynamic routing with OSPFv3 (Link-State, IPv6)"

*.configurator.addStaticRoutes  = false
*.configurator.addDefaultRoutes = false

**.r[*].hasOspf                  = true
**.r[*].ospf.ospfConfig         = xmldoc("ospfv3_config.xml")
**.r[*].ospf.helloInterval       = 10s
**.r[*].ospf.deadInterval        = 40s
**.r[*].ospf.retransmitInterval  = 5s

# ===========================================================
# [Config Part_II_Base] — Foundation for Transport Analysis
# ===========================================================
[Config Part_II_Base]
description = "Part II Foundation: TCP/UDP apps for transport protocol testing"
extends = RIPng

# TCP: client1 → server1 (port 1000)
*.client1.numApps                = 1
*.client1.app[0].typename        = "TcpSessionApp"
*.client1.app[0].connectAddress  = "server1"
*.client1.app[0].connectPort     = 1000
*.client1.app[0].tOpen           = 1s
*.client1.app[0].tSend           = 2s
*.client1.app[0].tClose          = 90s
*.client1.app[0].sendBytes       = 10MB

*.server1.numApps                = 1
*.server1.app[0].typename        = "TcpSinkApp"
*.server1.app[0].localPort       = 1000

# UDP: client2 → server2 (port 2000)
*.client2.numApps                = 1
*.client2.app[0].typename        = "UdpBasicApp"
*.client2.app[0].destAddresses   = "server2"
*.client2.app[0].destPort        = 2000
*.client2.app[0].messageLength   = 1000B
*.client2.app[0].sendInterval    = 0.01s

*.server2.numApps                = 1
*.server2.app[0].typename        = "UdpSink"
*.server2.app[0].localPort       = 2000

# Recording
**.tcp.cwnd:vector = true
**.tcp.rtt:vector  = true

# ============================================================
# Part II – TCP Scenarios (@Yehia-Bou-lahia)
# ============================================================
[Config TCP_Baseline]
extends = Part_II_Base
description = "TCP Baseline: Bottleneck 10 Mbps"
**.tcp.cwnd:vector = true
**.tcp.rtt:vector = true
**.tcp.sndNxt:vector = true
**.tcp.sndUna:vector = true

[Config TCP_Congestion_1Mbps]
extends = Part_II_Base
description = "TCP Congestion: Bottleneck 1 Mbps"
**.tcp.cwnd:vector = true
**.tcp.rtt:vector = true
**.tcp.sndNxt:vector = true
**.tcp.sndUna:vector = true
**.r2.eth[2].datarate = 1Mbps

# ============================================================
# Part II – UDP Scenarios (@abdenourounas)
# ============================================================
[Config UDP_Streaming]
description = "UDP: Real-time streaming simulation (5ms interval)"
extends = Part_II_Base
*.client1.numApps = 0   # Disable TCP
*.client2.app[0].sendInterval = 5ms
*.client2.app[0].messageLength = 1000B

[Config TCP_UDP_Competing]
description = "TCP and UDP competing for bottleneck bandwidth"
extends = Part_II_Base
*.client1.app[0].sendBytes = 100MB
*.client1.app[0].tOpen = 1s
*.client2.app[0].sendInterval = 10ms
*.client2.app[0].messageLength = 1000B
*.client2.app[0].startTime = 5s

[Config UDP_Heavy_Load]
description = "UDP Heavy Load: 1ms interval (≈8 Mbps)"
extends = Part_II_Base
*.client1.numApps = 0   # Disable TCP
*.client2.app[0].sendInterval = 1ms
*.client2.app[0].messageLength = 1000B





